Version 4.1
SHEET 1 1412 680
WIRE 256 -1312 96 -1312
WIRE 416 -1312 256 -1312
WIRE 96 -1296 96 -1312
WIRE 256 -1296 256 -1312
WIRE 416 -1296 416 -1312
WIRE 32 -1152 16 -1152
WIRE 96 -1152 96 -1216
WIRE 176 -1152 128 -1152
WIRE -272 -1136 -352 -1136
WIRE 128 -1136 128 -1152
WIRE 176 -1136 176 -1152
WIRE 256 -1136 256 -1216
WIRE 336 -1136 320 -1136
WIRE -352 -1120 -352 -1136
WIRE -272 -1120 -272 -1136
WIRE 16 -1120 16 -1152
WIRE 336 -1120 336 -1136
WIRE 96 -1056 96 -1152
WIRE 176 -1056 176 -1072
WIRE 256 -1056 256 -1136
WIRE 0 -1040 -32 -1040
WIRE -464 -992 -560 -992
WIRE -272 -992 -272 -1040
WIRE -272 -992 -384 -992
WIRE -208 -992 -272 -992
WIRE -112 -992 -112 -1040
WIRE -112 -992 -128 -992
WIRE 0 -992 -112 -992
WIRE 432 -992 384 -992
WIRE 560 -992 512 -992
WIRE 688 -992 640 -992
WIRE 752 -992 688 -992
WIRE 688 -976 688 -992
WIRE -560 -960 -560 -992
WIRE 432 -864 384 -864
WIRE 560 -864 512 -864
WIRE 688 -864 688 -912
WIRE 688 -864 640 -864
WIRE 752 -864 688 -864
WIRE -560 -848 -560 -880
WIRE -224 -848 -272 -848
WIRE -128 -848 -144 -848
WIRE 0 -848 -128 -848
WIRE 432 -816 384 -816
WIRE -272 -800 -272 -848
WIRE -128 -800 -128 -848
WIRE -112 -800 -128 -800
WIRE 0 -800 -32 -800
WIRE 432 -784 432 -816
WIRE 176 -752 176 -784
WIRE -272 -688 -272 -720
FLAG -560 -848 0
FLAG -272 -688 0
FLAG -352 -1120 0
FLAG 16 -1120 0
FLAG 336 -1120 0
FLAG 416 -1296 0
FLAG 176 -752 0
FLAG 432 -784 0
FLAG 128 -1136 0
FLAG 752 -992 OUT+
FLAG 752 -864 OUT-
SYMBOL LMH5401 256 -928 R0
SYMATTR InstName U1
SYMBOL res -16 -816 R90
WINDOW 0 0 56 VBottom 2
WINDOW 3 32 56 VTop 2
SYMATTR InstName RF-
SYMATTR Value 100k
SYMBOL res -128 -864 R90
WINDOW 0 0 56 VBottom 2
WINDOW 3 32 56 VTop 2
SYMATTR InstName RG-
SYMATTR Value 470
SYMBOL res -16 -1056 R90
WINDOW 0 0 56 VBottom 2
WINDOW 3 32 56 VTop 2
SYMATTR InstName RF+
SYMATTR Value 100k
SYMBOL res -112 -1008 R90
WINDOW 0 0 56 VBottom 2
WINDOW 3 32 56 VTop 2
SYMATTR InstName RG+
SYMATTR Value 470
SYMBOL res -256 -704 R180
WINDOW 0 36 76 Left 2
WINDOW 3 36 40 Left 2
SYMATTR InstName RM
SYMATTR Value 0
SYMBOL res -256 -1024 R180
WINDOW 0 36 76 Left 2
WINDOW 3 36 40 Left 2
SYMATTR InstName RT
SYMATTR Value 100k
SYMBOL res -480 -976 R270
WINDOW 0 32 56 VTop 2
WINDOW 3 0 56 VBottom 2
SYMATTR InstName Rin
SYMATTR Value 50
SYMBOL res 416 -848 R270
WINDOW 0 32 56 VTop 2
WINDOW 3 0 56 VBottom 2
SYMATTR InstName R8
SYMATTR Value 50
SYMBOL res 416 -976 R270
WINDOW 0 32 56 VTop 2
WINDOW 3 0 56 VBottom 2
SYMATTR InstName R9
SYMATTR Value 50
SYMBOL res 544 -976 R270
WINDOW 0 32 56 VTop 2
WINDOW 3 0 56 VBottom 2
SYMATTR InstName R10
SYMATTR Value 210
SYMBOL res 544 -848 R270
WINDOW 0 32 56 VTop 2
WINDOW 3 0 56 VBottom 2
SYMATTR InstName R11
SYMATTR Value 210
SYMBOL cap 672 -976 R0
SYMATTR InstName C1
SYMATTR Value 5p
SYMBOL cap 160 -1136 R0
SYMATTR InstName C2
SYMATTR Value 2.2n
SYMBOL cap 320 -1152 R90
WINDOW 0 0 32 VBottom 2
WINDOW 3 32 32 VTop 2
SYMATTR InstName C3
SYMATTR Value 2.2n
SYMBOL cap 96 -1168 R90
WINDOW 0 0 32 VBottom 2
WINDOW 3 32 32 VTop 2
SYMATTR InstName C4
SYMATTR Value 2.2n
SYMBOL voltage 96 -1200 R180
WINDOW 0 24 96 Left 2
WINDOW 3 24 16 Left 2
WINDOW 123 0 0 Left 0
WINDOW 39 0 0 Left 0
SYMATTR InstName V1
SYMATTR Value -2.5
SYMBOL voltage 256 -1200 R180
WINDOW 0 24 96 Left 2
WINDOW 3 24 16 Left 2
WINDOW 123 0 0 Left 0
WINDOW 39 0 0 Left 0
SYMATTR InstName V2
SYMATTR Value 2.5
SYMBOL voltage -560 -976 R0
WINDOW 123 38 69 Left 2
WINDOW 39 0 0 Left 0
SYMATTR InstName Vin
SYMATTR Value ""
SYMATTR Value2 AC 10m
TEXT 56 -920 Left 2 !.include LMH5401.lib
TEXT -512 -1280 Left 2 !.ac dec 1000 100 1G
TEXT -512 -1256 Left 2 ;.tran 0 1 0 10m
TEXT -512 -1304 Left 2 ;.noise V(OUT+) Vin dec 100 100 100Meg
TEXT -512 -1328 Left 2 !.measure noise NOISERMS integ V(onoise) from 100 to 100k
